 *load regulation
.include ../AE01.01.09.021.cir
.param ILOAD=5
.param VSOURCE=76
.param VSUPPLY=12
.dc I1 0 {ILOAD} 0.001
.backanno
.op
